Version 4
SHEET 1 1020 680
WIRE 960 -128 784 -128
WIRE 656 -64 640 -64
WIRE 848 -64 816 -64
WIRE 960 -32 960 -128
WIRE 784 32 784 -128
WIRE 736 48 736 -64
WIRE 752 48 736 48
WIRE 848 64 848 -64
WIRE 848 64 816 64
WIRE 928 64 848 64
WIRE 544 80 352 80
WIRE 704 80 624 80
WIRE 752 80 704 80
WIRE 704 112 704 80
WIRE 704 208 704 192
FLAG 560 -64 0
FLAG 704 288 0
FLAG 784 96 0
FLAG 928 144 0
FLAG 960 48 0
FLAG 352 160 0
SYMBOL res 912 160 M180
WINDOW 0 36 76 Left 2
WINDOW 3 36 40 Left 2
SYMATTR InstName R3
SYMATTR Value 100k
SYMBOL voltage 352 64 R0
WINDOW 3 -299 87 Left 2
WINDOW 123 0 0 Left 2
WINDOW 39 0 0 Left 2
SYMATTR Value PULSE(0 30 0 1 1 0 0 5)
SYMATTR InstName V2
SYMBOL res 640 64 R90
WINDOW 0 0 56 VBottom 2
WINDOW 3 32 56 VTop 2
SYMATTR InstName R5
SYMATTR Value 20k
SYMBOL res 720 208 R180
WINDOW 0 36 76 Left 2
WINDOW 3 36 40 Left 2
SYMATTR InstName R7
SYMATTR Value 2k
SYMBOL Opamps\\LT6201 784 64 R0
SYMATTR InstName U3
SYMBOL res 752 -80 R90
WINDOW 0 0 56 VBottom 2
WINDOW 3 32 56 VTop 2
SYMATTR InstName R11
SYMATTR Value 12k
SYMBOL res 832 -80 R90
WINDOW 0 0 56 VBottom 2
WINDOW 3 32 56 VTop 2
SYMATTR InstName R10
SYMATTR Value 6k
SYMBOL voltage 960 -48 R0
WINDOW 123 0 0 Left 2
WINDOW 39 0 0 Left 2
SYMATTR InstName V6
SYMATTR Value 5v
SYMBOL voltage 704 304 R180
WINDOW 123 0 0 Left 2
WINDOW 39 0 0 Left 2
SYMATTR InstName V1
SYMATTR Value -0.56v
SYMBOL voltage 656 -64 R90
WINDOW 123 0 0 Left 2
WINDOW 39 0 0 Left 2
SYMATTR InstName V3
SYMATTR Value 1.12
TEXT -192 136 Left 2 !.tran 5
